<?xml version="1.0"?>

<!-- generated on Mon Nov 25 18:39:49 2013 by SUMO duarouter Version 0.16.0
<?xml version="1.0" encoding="UTF-8"?>

<configuration xmlns:xsi="http://www.w3.org/2001/XMLSchema-instance" xsi:noNamespaceSchemaLocation="http://sumo.sf.net/xsd/duarouterConfiguration.xsd">

    <input>
        <net-file value="sumotest.net.xml"/>
        <trip-files value="sumotest.trips.xml"/>
    </input>

    <output>
        <output-file value="sumotest.rou.xml"/>
    </output>

    <processing>
        <ignore-errors value="true"/>
    </processing>

</configuration>
-->

<routes xmlns:xsi="http://www.w3.org/2001/XMLSchema-instance" xsi:noNamespaceSchemaLocation="http://sumo.sf.net/xsd/routes_file.xsd">
	<vehicle id="1" depart="1.00"><route edges="e5 e20 e21 e10"/></vehicle>
    <vehicle id="2" depart="1.00"><route edges="e10"/></vehicle>
    <vehicle id="3" depart="1.00"><route edges="e9 e10"/></vehicle>
    <vehicle id="4" depart="1.00"><route edges="e14 e5 e6 e25"/></vehicle>
	<vehicle id="5" depart="1.00"><route edges="e2 e23 e24"/></vehicle>
    <vehicle id="6" depart="1.00"><route edges="e1 e18 e19 e20 e21 e10"/></vehicle>
    <vehicle id="7" depart="1.00"><route edges="e11 e12"/></vehicle>
    <vehicle id="8" depart="2.00"><route edges="e2 e23 e24 e25 e26 e27"/></vehicle>
    <vehicle id="9" depart="1.00"><route edges="e7 e8 e26"/></vehicle>
    <vehicle id="10" depart="1.00"><route edges="e3 e19 e20 e21 e10"/></vehicle>
    <vehicle id="11" depart="1.00"><route edges="e17 e11 e12"/></vehicle>
    <vehicle id="12" depart="2.00"><route edges="e1 e18 e19 e20 e21 e22 e12"/></vehicle>
    <vehicle id="13" depart="2.00"><route edges="e7 e21 e22 e12"/></vehicle>
    <vehicle id="14" depart="3.00"><route edges="e1 e18 e19 e20 e8"/></vehicle>
    <vehicle id="15" depart="3.00"><route edges="e7 e21 e22"/></vehicle>
    <vehicle id="16" depart="1.00"><route edges="e13 e14 e5 e6 e25"/></vehicle>
    <vehicle id="17" depart="1.00"><route edges="e18 e4"/></vehicle>
    <vehicle id="18" depart="2.00"><route edges="e3 e19 e20 e8"/></vehicle>
    <vehicle id="19" depart="1.00"><route edges="e8"/></vehicle>
    <vehicle id="20" depart="4.00"><route edges="e1 e2 e23"/></vehicle>
    <vehicle id="21" depart="5.00"><route edges="e1 e18 e19 e20 e21"/></vehicle>
    <vehicle id="22" depart="2.00"><route edges="e18 e4"/></vehicle>
    <vehicle id="23" depart="6.00"><route edges="e1 e18 e19 e6"/></vehicle>
    <vehicle id="24" depart="1.00"><route edges="e5"/></vehicle>
    <vehicle id="25" depart="1.00"><route edges="e16 e9 e22 e12"/></vehicle>
    <vehicle id="26" depart="2.00"><route edges="e8 e26"/></vehicle>
    <vehicle id="27" depart="7.00"><route edges="e1 e18 e4 e24 e25 e26"/></vehicle>
    <vehicle id="28" depart="3.00"><route edges="e2 e23"/></vehicle>
    <vehicle id="29" depart="2.00"><route edges="e14 e15 e7"/></vehicle>
    <vehicle id="30" depart="2.00"><route edges="e13 e3 e4"/></vehicle>
    <vehicle id="31" depart="3.00"><route edges="e3 e19 e20 e8"/></vehicle>
    <vehicle id="32" depart="8.00"><route edges="e1 e18 e19"/></vehicle>
    <vehicle id="33" depart="9.00"><route edges="e1 e18 e4"/></vehicle>
    <vehicle id="34" depart="2.00"><route edges="e10"/></vehicle>
    <vehicle id="35" depart="1.00"><route edges="e19 e20 e21 e22 e12"/></vehicle>
    <vehicle id="36" depart="2.00"><route edges="e5 e20 e21 e22 e12"/></vehicle>
    <vehicle id="37" depart="1.00"><route edges="e15 e16 e9 e22 e12"/></vehicle>
    <vehicle id="38" depart="10.00"><route edges="e1 e18 e19 e20 e8"/></vehicle>
    <vehicle id="39" depart="3.00"><route edges="e5 e6"/></vehicle>
    <vehicle id="40" depart="3.00"><route edges="e14 e15 e16 e17"/></vehicle>
    <vehicle id="41" depart="4.00"><route edges="e7 e21 e22 e12"/></vehicle>
    <vehicle id="42" depart="4.00"><route edges="e14 e15 e7 e21 e10 e27"/></vehicle>
    <vehicle id="43" depart="5.00"><route edges="e7 e21 e10 e27"/></vehicle>
    <vehicle id="44" depart="5.00"><route edges="e14 e15 e16 e9"/></vehicle>
    <vehicle id="45" depart="1.00"><route edges="e5"/></vehicle>
    <vehicle id="46" depart="3.00"><route edges="e13 e14 e15 e16 e17 e11"/></vehicle>
    <vehicle id="47" depart="3.00"><route edges="e8 e26 e27"/></vehicle>
    <vehicle id="48" depart="4.00"><route edges="e3 e19 e6"/></vehicle>
    <vehicle id="49" depart="1.00"><route edges="e24 e25 e26 e27"/></vehicle>
    <vehicle id="50" depart="4.00"><route edges="e13 e3 e4"/></vehicle>
    <vehicle id="51" depart="3.00"><route edges="e18 e19"/></vehicle>
    <vehicle id="52" depart="1.00"><route edges="e15 e7 e8 e26"/></vehicle>
    <vehicle id="53" depart="5.00"><route edges="e3 e19 e20 e21 e10"/></vehicle>
    <vehicle id="54" depart="1.00"><route edges="e2"/></vehicle>
    <vehicle id="55" depart="1.00"><route edges="e19 e20 e8"/></vehicle>
    <vehicle id="56" depart="1.00"><route edges="e6 e25"/></vehicle>
    <vehicle id="57" depart="11.00"><route edges="e1 e18 e19 e20 e21"/></vehicle>
    <vehicle id="58" depart="1.00"><route edges="e26"/></vehicle>
    <vehicle id="59" depart="2.00"><route edges="e17 e11"/></vehicle>
    <vehicle id="60" depart="5.00"><route edges="e13 e14 e5 e6"/></vehicle>
    <vehicle id="61" depart="6.00"><route edges="e3"/></vehicle>
    <vehicle id="62" depart="2.00"><route edges="e16 e9 e10"/></vehicle>
    <vehicle id="63" depart="1.00"><route edges="e21 e22 e12"/></vehicle>
    <vehicle id="64" depart="12.00"><route edges="e1 e18 e4 e24 e25 e26"/></vehicle>
    <vehicle id="65" depart="5.00"><route edges="e7 e8 e26"/></vehicle>
    <vehicle id="66" depart="3.00"><route edges="e17"/></vehicle>
    <vehicle id="67" depart="6.00"><route edges="e13 e14 e5 e20 e21 e22 e12"/></vehicle>
    <vehicle id="68" depart="6.00"><route edges="e14 e15 e7 e21 e22 e12"/></vehicle>
    <vehicle id="69" depart="2.00"><route edges="e9 e10 e27"/></vehicle>
    <vehicle id="70" depart="7.00"><route edges="e13 e14 e5 e6"/></vehicle>
    <vehicle id="71" depart="4.00"><route edges="e17 e11 e12"/></vehicle>
    <vehicle id="72" depart="1.00"><route edges="e25"/></vehicle>
    <vehicle id="73" depart="7.00"><route edges="e3 e19 e20 e21"/></vehicle>
    <vehicle id="74" depart="8.00"><route edges="e13 e14 e15 e16 e17 e11"/></vehicle>
    <vehicle id="75" depart="3.00"><route edges="e9 e22 e12"/></vehicle>
    <vehicle id="76" depart="7.00"><route edges="e14 e5"/></vehicle>
    <vehicle id="77" depart="6.00"><route edges="e7 e21 e10"/></vehicle>
    <vehicle id="78" depart="8.00"><route edges="e3 e19 e6"/></vehicle>
    <vehicle id="79" depart="3.00"><route edges="e16"/></vehicle>
    <vehicle id="80" depart="13.00"><route edges="e1 e18 e19 e6"/></vehicle>
    <vehicle id="81" depart="8.00"><route edges="e7 e8"/></vehicle>
    <vehicle id="82" depart="4.00"><route edges="e5 e20 e21 e10"/></vehicle>
    <vehicle id="83" depart="1.00"><route edges="e4"/></vehicle>
    <vehicle id="84" depart="4.00"><route edges="e9 e22 e12"/></vehicle>
    <vehicle id="85" depart="1.00"><route edges="e22 e12"/></vehicle>
    <vehicle id="86" depart="10.00"><route edges="e3 e4"/></vehicle>
    <vehicle id="87" depart="14.00"><route edges="e1 e18 e19 e20 e8"/></vehicle>
    <vehicle id="88" depart="4.00"><route edges="e16 e17"/></vehicle>
    <vehicle id="89" depart="8.00"><route edges="e14 e15 e7 e8 e26"/></vehicle>
    <vehicle id="90" depart="11.00"><route edges="e3 e19 e6 e25 e26 e27"/></vehicle>
    <vehicle id="91" depart="5.00"><route edges="e5 e20 e21 e22 e12"/></vehicle>
    <vehicle id="92" depart="6.00"><route edges="e5 e20 e21 e22 e12"/></vehicle>
    <vehicle id="93" depart="15.00"><route edges="e1 e18 e4 e24 e25"/></vehicle>
    <vehicle id="94" depart="5.00"><route edges="e16 e9 e22"/></vehicle>
    <vehicle id="95" depart="4.00"><route edges="e8 e26"/></vehicle>
    <vehicle id="96" depart="12.00"><route edges="e3 e19 e6 e25 e26 e27"/></vehicle>
    <vehicle id="97" depart="9.00"><route edges="e13 e14 e5 e20 e21"/></vehicle>
    <vehicle id="98" depart="10.00"><route edges="e13 e14 e5 e6"/></vehicle>
    <vehicle id="99" depart="16.00"><route edges="e1 e18 e19 e20 e21 e22 e12"/></vehicle>
    <vehicle id="100" depart="11.00"><route edges="e13 e14 e15 e16"/></vehicle>
    <vehicle id="101" depart="7.00"><route edges="e5 e20 e21 e22 e12"/></vehicle>
    <vehicle id="102" depart="8.00"><route edges="e5 e20 e21 e22 e12"/></vehicle>
    <vehicle id="103" depart="17.00"><route edges="e1 e18 e4 e24 e25"/></vehicle>
    <vehicle id="104" depart="7.00"><route edges="e16 e9 e22"/></vehicle>
    <vehicle id="105" depart="5.00"><route edges="e8 e26"/></vehicle>
    <vehicle id="106" depart="13.00"><route edges="e3 e19 e6 e25 e26 e27"/></vehicle>
    <vehicle id="107" depart="12.00"><route edges="e13 e14 e5 e20 e21"/></vehicle>
    <vehicle id="108" depart="13.00"><route edges="e13 e14 e5 e6"/></vehicle>
    <vehicle id="109" depart="18.00"><route edges="e1 e18 e19 e20 e21 e22 e12"/></vehicle>
    <vehicle id="110" depart="14.00"><route edges="e13 e14 e15 e16"/></vehicle>
</routes>
