<?xml version="1.0"?>

<!-- generated on Mon Nov 25 18:39:49 2013 by SUMO duarouter Version 0.16.0
<?xml version="1.0" encoding="UTF-8"?>

<configuration xmlns:xsi="http://www.w3.org/2001/XMLSchema-instance" xsi:noNamespaceSchemaLocation="http://sumo.sf.net/xsd/duarouterConfiguration.xsd">

    <input>
        <net-file value="sumotest.net.xml"/>
        <trip-files value="sumotest.trips.xml"/>
    </input>

    <output>
        <output-file value="sumotest.rou.xml"/>
    </output>

    <processing>
        <ignore-errors value="true"/>
    </processing>

</configuration>
-->

<routes xmlns:xsi="http://www.w3.org/2001/XMLSchema-instance" xsi:noNamespaceSchemaLocation="http://sumo.sf.net/xsd/routes_file.xsd">
    <vehicle id="0" depart="1.00"><route edges="e14 e15 e16"/></vehicle>
    <vehicle id="1" depart="1.01"><route edges="e5 e20 e21 e10"/></vehicle>
    <vehicle id="2" depart="1.02"><route edges="e10"/></vehicle>
    <vehicle id="3" depart="1.03"><route edges="e9 e10"/></vehicle>
    <vehicle id="4" depart="1.04"><route edges="e14 e5 e6 e25"/></vehicle>
	<vehicle id="5" depart="1.05"><route edges="e2 e23 e24"/></vehicle>
    <vehicle id="6" depart="1.06"><route edges="e1 e18 e19 e20 e21 e10"/></vehicle>
    <vehicle id="7" depart="1.07"><route edges="e11 e12"/></vehicle>
    <vehicle id="8" depart="1.08"><route edges="e2 e23 e24 e25 e26 e27"/></vehicle>
    <vehicle id="9" depart="1.09"><route edges="e7 e8 e26"/></vehicle>
    <vehicle id="10" depart="1.10"><route edges="e3 e19 e20 e21 e10"/></vehicle>
    <vehicle id="11" depart="1.11"><route edges="e17 e11 e12"/></vehicle>
    <vehicle id="12" depart="1.12"><route edges="e1 e18 e19 e20 e21 e22 e12"/></vehicle>
    <vehicle id="13" depart="1.13"><route edges="e7 e21 e22 e12"/></vehicle>
    <vehicle id="14" depart="1.14"><route edges="e1 e18 e19 e20 e8"/></vehicle>
    <vehicle id="15" depart="1.15"><route edges="e7 e21 e22"/></vehicle>
    <vehicle id="16" depart="1.16"><route edges="e13 e14 e5 e6 e25"/></vehicle>
    <vehicle id="17" depart="1.17"><route edges="e18 e4"/></vehicle>
    <vehicle id="18" depart="1.18"><route edges="e3 e19 e20 e8"/></vehicle>
    <vehicle id="19" depart="1.19"><route edges="e8"/></vehicle>
    <vehicle id="20" depart="1.20"><route edges="e1 e2 e23"/></vehicle>
    <vehicle id="21" depart="1.21"><route edges="e1 e18 e19 e20 e21"/></vehicle>
    <vehicle id="22" depart="1.22"><route edges="e18 e4"/></vehicle>
    <vehicle id="23" depart="1.23"><route edges="e1 e18 e19 e6"/></vehicle>
    <vehicle id="24" depart="1.24"><route edges="e5"/></vehicle>
    <vehicle id="25" depart="1.25"><route edges="e16 e9 e22 e12"/></vehicle>
    <vehicle id="26" depart="1.26"><route edges="e8 e26"/></vehicle>
    <vehicle id="27" depart="1.27"><route edges="e1 e18 e4 e24 e25 e26"/></vehicle>
    <vehicle id="28" depart="1.28"><route edges="e2 e23"/></vehicle>
    <vehicle id="29" depart="1.29"><route edges="e14 e15 e7"/></vehicle>
    <vehicle id="30" depart="1.30"><route edges="e13 e3 e4"/></vehicle>
    <vehicle id="31" depart="1.31"><route edges="e3 e19 e20 e8"/></vehicle>
    <vehicle id="32" depart="1.32"><route edges="e1 e18 e19"/></vehicle>
    <vehicle id="33" depart="1.33"><route edges="e1 e18 e4"/></vehicle>
    <vehicle id="34" depart="1.34"><route edges="e10"/></vehicle>
    <vehicle id="35" depart="1.35"><route edges="e19 e20 e21 e22 e12"/></vehicle>
    <vehicle id="36" depart="1.36"><route edges="e5 e20 e21 e22 e12"/></vehicle>
    <vehicle id="37" depart="1.37"><route edges="e15 e16 e9 e22 e12"/></vehicle>
    <vehicle id="38" depart="1.38"><route edges="e1 e18 e19 e20 e8"/></vehicle>
    <vehicle id="39" depart="1.39"><route edges="e5 e6"/></vehicle>
    <vehicle id="40" depart="1.40"><route edges="e14 e15 e16 e17"/></vehicle>
    <vehicle id="41" depart="1.41"><route edges="e7 e21 e22 e12"/></vehicle>
    <vehicle id="42" depart="1.42"><route edges="e14 e15 e7 e21 e10 e27"/></vehicle>
    <vehicle id="43" depart="1.43"><route edges="e7 e21 e10 e27"/></vehicle>
    <vehicle id="44" depart="1.44"><route edges="e14 e15 e16 e9"/></vehicle>
    <vehicle id="45" depart="1.45"><route edges="e5"/></vehicle>
    <vehicle id="46" depart="1.46"><route edges="e13 e14 e15 e16 e17 e11"/></vehicle>
    <vehicle id="47" depart="1.47"><route edges="e8 e26 e27"/></vehicle>
    <vehicle id="48" depart="1.48"><route edges="e3 e19 e6"/></vehicle>
    <vehicle id="49" depart="1.49"><route edges="e24 e25 e26 e27"/></vehicle>
    <vehicle id="50" depart="1.50"><route edges="e13 e3 e4"/></vehicle>
    <vehicle id="51" depart="1.51"><route edges="e18 e19"/></vehicle>
    <vehicle id="52" depart="1.52"><route edges="e15 e7 e8 e26"/></vehicle>
    <vehicle id="53" depart="1.53"><route edges="e3 e19 e20 e21 e10"/></vehicle>
    <vehicle id="54" depart="1.54"><route edges="e2"/></vehicle>
    <vehicle id="55" depart="1.55"><route edges="e19 e20 e8"/></vehicle>
    <vehicle id="56" depart="1.56"><route edges="e6 e25"/></vehicle>
    <vehicle id="57" depart="1.57"><route edges="e1 e18 e19 e20 e21"/></vehicle>
    <vehicle id="58" depart="1.58"><route edges="e26"/></vehicle>
    <vehicle id="59" depart="1.59"><route edges="e17 e11"/></vehicle>
    <vehicle id="60" depart="1.60"><route edges="e13 e14 e5 e6"/></vehicle>
    <vehicle id="61" depart="1.61"><route edges="e3"/></vehicle>
    <vehicle id="62" depart="1.62"><route edges="e16 e9 e10"/></vehicle>
    <vehicle id="63" depart="1.63"><route edges="e21 e22 e12"/></vehicle>
    <vehicle id="64" depart="1.64"><route edges="e1 e18 e4 e24 e25 e26"/></vehicle>
    <vehicle id="65" depart="1.65"><route edges="e7 e8 e26"/></vehicle>
    <vehicle id="66" depart="1.66"><route edges="e17"/></vehicle>
    <vehicle id="67" depart="1.67"><route edges="e13 e14 e5 e20 e21 e22 e12"/></vehicle>
    <vehicle id="68" depart="1.68"><route edges="e14 e15 e7 e21 e22 e12"/></vehicle>
    <vehicle id="69" depart="1.69"><route edges="e9 e10 e27"/></vehicle>
    <vehicle id="70" depart="1.70"><route edges="e13 e14 e5 e6"/></vehicle>
    <vehicle id="71" depart="1.71"><route edges="e17 e11 e12"/></vehicle>
    <vehicle id="72" depart="1.72"><route edges="e25"/></vehicle>
    <vehicle id="73" depart="1.73"><route edges="e3 e19 e20 e21"/></vehicle>
    <vehicle id="74" depart="1.74"><route edges="e13 e14 e15 e16 e17 e11"/></vehicle>
    <vehicle id="75" depart="1.75"><route edges="e9 e22 e12"/></vehicle>
    <vehicle id="76" depart="1.76"><route edges="e14 e5"/></vehicle>
    <vehicle id="77" depart="1.77"><route edges="e7 e21 e10"/></vehicle>
    <vehicle id="78" depart="1.78"><route edges="e3 e19 e6"/></vehicle>
    <vehicle id="79" depart="1.79"><route edges="e16"/></vehicle>
    <vehicle id="80" depart="1.80"><route edges="e1 e18 e19 e6"/></vehicle>
    <vehicle id="81" depart="1.81"><route edges="e7 e8"/></vehicle>
    <vehicle id="82" depart="1.82"><route edges="e5 e20 e21 e10"/></vehicle>
    <vehicle id="83" depart="1.83"><route edges="e4"/></vehicle>
    <vehicle id="84" depart="1.84"><route edges="e9 e22 e12"/></vehicle>
    <vehicle id="85" depart="1.85"><route edges="e22 e12"/></vehicle>
    <vehicle id="86" depart="1.86"><route edges="e3 e4"/></vehicle>
    <vehicle id="87" depart="1.87"><route edges="e1 e18 e19 e20 e8"/></vehicle>
    <vehicle id="88" depart="1.88"><route edges="e16 e17"/></vehicle>
    <vehicle id="89" depart="1.89"><route edges="e14 e15 e7 e8 e26"/></vehicle>
    <vehicle id="90" depart="1.90"><route edges="e3 e19 e6 e25 e26 e27"/></vehicle>
    <vehicle id="91" depart="1.91"><route edges="e5 e20 e21 e22 e12"/></vehicle>
    <vehicle id="92" depart="1.92"><route edges="e5 e20 e21 e22 e12"/></vehicle>
    <vehicle id="93" depart="1.93"><route edges="e1 e18 e4 e24 e25"/></vehicle>
    <vehicle id="94" depart="1.94"><route edges="e16 e9 e22"/></vehicle>
    <vehicle id="95" depart="1.95"><route edges="e8 e26"/></vehicle>
    <vehicle id="96" depart="1.96"><route edges="e3 e19 e6 e25 e26 e27"/></vehicle>
    <vehicle id="97" depart="1.97"><route edges="e13 e14 e5 e20 e21"/></vehicle>
    <vehicle id="98" depart="1.98"><route edges="e13 e14 e5 e6"/></vehicle>
    <vehicle id="99" depart="1.99"><route edges="e1 e18 e19 e20 e21 e22 e12"/></vehicle>
    <vehicle id="100" depart="2.00"><route edges="e13 e14 e15 e16"/></vehicle>
    <vehicle id="101" depart="2.01"><route edges="e5 e6 e25"/></vehicle>
    <vehicle id="102" depart="2.02"><route edges="e8 e26 e27"/></vehicle>
    <vehicle id="103" depart="2.03"><route edges="e19 e20 e8"/></vehicle>
    <vehicle id="104" depart="2.04"><route edges="e13 e14 e5 e20 e21 e10"/></vehicle>
    <vehicle id="105" depart="2.05"><route edges="e1 e18 e19 e20"/></vehicle>
    <vehicle id="106" depart="2.06"><route edges="e1 e18 e19 e20 e21 e22"/></vehicle>
    <vehicle id="107" depart="2.07"><route edges="e4 e24 e25 e26"/></vehicle>
    <vehicle id="108" depart="2.08"><route edges="e5 e20"/></vehicle>
    <vehicle id="109" depart="2.09"><route edges="e13 e3"/></vehicle>
    <vehicle id="110" depart="2.10"><route edges="e15 e16 e9"/></vehicle>
</routes>
